LAMMPS (2 Aug 2023 - Update 3)
# —————————— Initialization ——————

units		metal
dimension	3
boundary		p	p	p
atom_style	atomic
variable latparam equal	4.05

# —————— ATOM DEFINITION ———————
lattice 	fcc 4.05
Lattice spacing in x,y,z = 4.05 4.05 4.05
region		whole block 0 10 0 10 0 10
create_box	1 whole
Created orthogonal box = (0 0 0) to (40.5 40.5 40.5)

lattice		fcc 4.05 orient x 1 0 0 orient y 0 1 0 orient z 0 0 1
Lattice spacing in x,y,z = 4.05 4.05 4.05
create_atoms	1 region whole
Created 4000 atoms
replicate	1	1	1
Replication is creating a 1x1x1 = 1 times larger system...
  orthogonal box = (0 0 0) to (40.5 40.5 40.5)
  4000 atoms
  replicate CPU = 0.001 seconds

# —————————— Define FORCE FIELD ————————
pair_style	eam/alloy
pair_coeff	* * Al99.eam.alloy Al

neighbor	2.0 bin
neigh_modify	delay 10 check yes

# —————————— Define Settings ———————

compute		csym	all	centro/atom 	fcc
compute		eng	all	pe/atom

######################################################
# ———————————EQUILIBRATION ——————————

# reset timer
reset_timestep	0

# 2 fs time step
timestep	0.002

# initial velocities
velocity	all	create	300	12345	mom	yes	rot	no

# thermostat + barostat
fix	1	all	npt	temp	300	300	1	iso	0	0	1	drag	1.0

#instrumentation and output
variable	s1	equal	“time”
variable	s2	equal	“lx”
variable	s3	equal	“ly”
variable	s4	equal	“lz”
variable	s5	equal	“vol”
variable 	s6	equal	“press”
variable	s7	equal	“pe”
variable 	s8	equal	“ke”
variable	s9	equal	“etotal”
variable	s10	equal	“temp”

# thermo
thermo		500
thermo_style	custom	step	time	cpu	cpuremain	lx	ly	lz	press	pe	temp

# dumping trajectory
dump		1	all	atom	250	dump.eq.lammpstrj

# 24 ps MD simulation (assuming 2 fs time step)
run		12000
Step          Time           CPU          CPULeft           Lx             Ly             Lz           Press          PotEng          Temp
0   0              0              0              40.5           40.5           40.5           2496.1233     -13440          300
Averages over the last 13 of 25 rows, steps 6000 to 12000:
Lx Ly Lz Press PotEng Temp
40.6462 40.6462 40.6462 -40.5455 -13289.2 292.885
Loop time of 73.9157 on 1 procs for 12000 steps with 4000 atoms

# clearing fixes and dumps
unfix		1
undump		1

# saving equilibrium length for strain calculation
variable	tmp	equal	“lx”
variable	L0	equal	40.651207778964
Initial Length, L0: 40.651207778964

######################################################
# ———————————DEFORMATION ——————————

# reset timer
reset_timestep	0

# 2 fs timestep
timestep	0.002

# thermostat + barostat
fix		1	all	npt	temp	300	300	1 	y	0	0	1	z	0	0	1	drag	1.0

# nonequilibrium straining in x-direction at strain rate = 1x10^10 / s = 1 x 10^-2 /ps	in units metal
variable	srate	equal	1.0e10
variable	srate1	equal	“v_srate / 1.0e12”
fix		2	all	deform	1	x	erate	0.01	units 	box	remap	x

#instrumentation and output
# for units metal, pressure is in [bars] = 100 [kPa] = 1/10000 [GPa]	=> p2, p3, p4 are in GPa

variable	strain	equal	“(lx - v_L0)/v_L0”
variable	p1	equal	“v_strain”
variable	p2	equal	“-pxx/10000”
variable	p3	equal	“-pyy/10000”
variable	p4	equal	“-pzz/10000”

#thermo
thermo	500
thermo_style	custom	step	cpuremain	v_strain	v_p2	v_p3	v_p4	press	pe	temp

#dumping standard atom trajectories
dump		1	all	atom	125	dump.deform.lammpstrj

#dumping custom cfg files containing coords + ancillary variables
dump		2	all	cfg	125	dump.deform_*.cfg	mass	type	xs	ys	zs	c_csym	c_eng	fx	fy	fz
dump_modify	2	element	Al

# 20 ps MD simulation (assuming 2 fs time step)
run		10000
Step        CPULeft        v_strain         v_p2           v_p3           v_p4          Press          PotEng          Temp
0   0              6.9916027e-16  0.011763413    0.026127131   -0.011552159   -87.794616     -13286.145      302.36302
Averages over the last 11 of 21 rows, steps 5000 to 10000:
v_strain v_p2 v_p3 v_p4 Press PotEng Temp
0.15 4.66091 -0.0206439 -0.0146003 -15418.9 -13069.5 349.466
Loop time of 76.3145 on 1 procs for 10000 steps with 4000 atoms

# clearing fixes and dumps
unfix		1
unfix		2
unfix		writer
undump		1
undump		2

######################################################
# ———————————Simulation Done ——————————

print “All done!”
All done!
